<?xml version="1.0" encoding="UTF-8"?>

<!-- generated on 2022-10-16 20:17:00.082904 by randomTrips.py v1_14_1+0000-f654d7b963e
<configuration>
    <additional-files value="./complex_network/additionals.xml"/>
    <end value="10"/>
    <net-file value="./complex_network/osm.net.xml"/>
    <period value="0.004"/>
    <random value="True"/>
    <random-depart-offset value="5"/>
    <route-file value="./complex_network/complex_route.rou.xml"/>
    <validate value="True"/>
</configuration>
-->

<!-- generated on 2022-10-16 20:16:59 by Eclipse SUMO duarouter Version 1.14.1
<configuration xmlns:xsi="http://www.w3.org/2001/XMLSchema-instance" xsi:noNamespaceSchemaLocation="http://sumo.dlr.de/xsd/duarouterConfiguration.xsd">

    <input>
        <net-file value="./complex_network/osm.net.xml"/>
        <additional-files value="./complex_network/additionals.xml"/>
        <route-files value="trips.trips.xml"/>
    </input>

    <output>
        <output-file value="trips.trips.xml.tmp"/>
        <alternatives-output value="NUL"/>
        <write-trips value="true"/>
    </output>

    <time>
        <begin value="0"/>
        <end value="10"/>
    </time>

    <report>
        <no-warnings value="true"/>
        <ignore-errors value="true"/>
        <no-step-log value="true"/>
    </report>

</configuration>
-->

<routes xmlns:xsi="http://www.w3.org/2001/XMLSchema-instance" xsi:noNamespaceSchemaLocation="http://sumo.dlr.de/xsd/routes_file.xsd">
    <trip id="0" depart="0.00" from="24320176#0" to="50676970"/>
    <trip id="1" depart="0.00" from="-336309842#0" to="24261107#0"/>
    <trip id="2" depart="0.01" from="745484620" to="25696810#1"/>
    <trip id="3" depart="0.01" from="9810521" to="50676968#0"/>
    <trip id="4" depart="0.02" from="293821500#0" to="-337178026#4"/>
    <trip id="5" depart="0.02" from="-24724991" to="54724442"/>
    <trip id="6" depart="0.02" from="46848909#0" to="299715756#1"/>
    <trip id="7" depart="0.03" from="291749682#0" to="-737062731"/>
    <trip id="8" depart="0.03" from="-24690800" to="-279115888"/>
    <trip id="9" depart="0.04" from="235997652#0" to="-373882672"/>
    <trip id="10" depart="0.04" from="225111773" to="-15238236#1"/>
    <trip id="11" depart="0.04" from="17044822" to="186724109"/>
    <trip id="13" depart="0.05" from="304649694" to="373882672"/>
    <trip id="14" depart="0.06" from="-826316132" to="187243941"/>
    <trip id="15" depart="0.06" from="363499038#0" to="24682846#0"/>
    <trip id="16" depart="0.06" from="-130007212#1" to="259048744"/>
    <trip id="17" depart="0.07" from="127253516#2" to="-644313249#1"/>
    <trip id="18" depart="0.07" from="156341795#0" to="25710420#0"/>
    <trip id="19" depart="0.08" from="-375025645#2" to="25400412"/>
    <trip id="20" depart="0.08" from="7988817" to="-165691548"/>
    <trip id="21" depart="0.08" from="46848019" to="165691552"/>
    <trip id="22" depart="0.09" from="23491506#0" to="-511807551#4"/>
    <trip id="23" depart="0.09" from="-26469305" to="58640916"/>
    <trip id="24" depart="0.10" from="165691542" to="-971656019"/>
    <trip id="25" depart="0.10" from="24262562#0" to="32800890"/>
    <trip id="26" depart="0.10" from="-24269138" to="25702955"/>
    <trip id="27" depart="0.11" from="24726999" to="-27947852#1"/>
    <trip id="28" depart="0.11" from="225111771" to="971656016#0"/>
    <trip id="29" depart="0.12" from="894360223#1" to="25432381"/>
    <trip id="30" depart="0.12" from="35738505" to="-138010130#1"/>
    <trip id="31" depart="0.12" from="992226104" to="940683859"/>
    <trip id="32" depart="0.13" from="260760843" to="-320896963#1"/>
    <trip id="33" depart="0.13" from="-165691577#1" to="-138009041"/>
    <trip id="34" depart="0.14" from="370571474" to="-24740028#0"/>
    <trip id="35" depart="0.14" from="598944885#2" to="398265286"/>
    <trip id="36" depart="0.14" from="55055037" to="-337178026#0"/>
    <trip id="37" depart="0.15" from="548862185" to="-151721406#1"/>
    <trip id="38" depart="0.15" from="24320225#0" to="25696193#0"/>
    <trip id="39" depart="0.16" from="24740064#0" to="-331367117"/>
    <trip id="40" depart="0.16" from="24269280" to="148348626#0"/>
    <trip id="41" depart="0.16" from="151721406#0" to="-138007022#3"/>
    <trip id="42" depart="0.17" from="25707309" to="53864904#1"/>
    <trip id="43" depart="0.17" from="384916876" to="913873412#1"/>
    <trip id="44" depart="0.18" from="24740028#0" to="315050839"/>
    <trip id="45" depart="0.18" from="-25452619" to="24269030"/>
    <trip id="46" depart="0.18" from="25427961#0" to="297138423"/>
    <trip id="47" depart="0.19" from="141393683" to="558840455#0"/>
    <trip id="48" depart="0.19" from="235997652#0" to="321593790"/>
    <trip id="49" depart="0.20" from="485955804#0" to="24036225"/>
    <trip id="50" depart="0.20" from="374851660" to="24314198"/>
    <trip id="51" depart="0.20" from="24203457#0" to="24680216#1"/>
    <trip id="52" depart="0.21" from="225111773" to="84722620#0"/>
    <trip id="53" depart="0.21" from="152392917" to="315050845"/>
    <trip id="54" depart="0.22" from="24691821" to="262231188#0"/>
    <trip id="55" depart="0.22" from="55055035#2" to="293068528"/>
    <trip id="56" depart="0.22" from="36000404#0" to="50676968#0"/>
    <trip id="57" depart="0.23" from="55055042" to="374890831"/>
    <trip id="58" depart="0.23" from="307214695#1" to="-466141546#2"/>
    <trip id="59" depart="0.24" from="24680099#0" to="24721912"/>
    <trip id="60" depart="0.24" from="23786265" to="24724462#0"/>
    <trip id="61" depart="0.24" from="35553137#0" to="95842194#0"/>
    <trip id="62" depart="0.25" from="20831647" to="-1079579239"/>
    <trip id="63" depart="0.25" from="698356542#1" to="57401574"/>
    <trip id="64" depart="0.26" from="-7988746" to="296896090#2"/>
    <trip id="65" depart="0.26" from="-663003514#1" to="-329935740"/>
    <trip id="66" depart="0.26" from="59546333#0" to="-466141546#2"/>
    <trip id="67" depart="0.27" from="24721912" to="-337178026#3"/>
    <trip id="68" depart="0.27" from="24721975#0" to="-727077020"/>
    <trip id="69" depart="0.28" from="114812516" to="26734004#0"/>
    <trip id="70" depart="0.28" from="-288152137#0" to="24671182"/>
    <trip id="71" depart="0.28" from="332932173#0" to="24268940"/>
    <trip id="72" depart="0.29" from="17097295" to="589523533"/>
    <trip id="73" depart="0.29" from="-54357148#8" to="46848908#0"/>
    <trip id="74" depart="0.30" from="35775319" to="155220677#3"/>
    <trip id="75" depart="0.30" from="377538309#0" to="-487518035"/>
    <trip id="76" depart="0.30" from="496731947" to="68700132#0"/>
    <trip id="77" depart="0.31" from="-39622347" to="260760845"/>
    <trip id="78" depart="0.31" from="292642956" to="-127170603#1"/>
    <trip id="79" depart="0.32" from="24680116#0" to="-529152856"/>
    <trip id="80" depart="0.32" from="173301960#0" to="875723370"/>
    <trip id="81" depart="0.32" from="-336309842#2" to="913855167#3"/>
    <trip id="82" depart="0.33" from="25702974#0" to="728948934"/>
    <trip id="83" depart="0.33" from="24724951" to="-663009166"/>
    <trip id="84" depart="0.34" from="-855392304" to="-325386557"/>
    <trip id="85" depart="0.34" from="663003511#0" to="625093159"/>
    <trip id="86" depart="0.34" from="-24724691#0" to="315044359#0"/>
    <trip id="87" depart="0.35" from="-337178026#3" to="22790341"/>
    <trip id="88" depart="0.35" from="425221273" to="553121424#0"/>
    <trip id="89" depart="0.36" from="-127553883#1" to="32266091"/>
    <trip id="90" depart="0.36" from="721614864" to="46696013#0"/>
    <trip id="91" depart="0.36" from="-201138752#7" to="27533472#0"/>
    <trip id="92" depart="0.37" from="20831458#0" to="25707315"/>
    <trip id="93" depart="0.37" from="51562176" to="165691552"/>
    <trip id="94" depart="0.38" from="165691577#0" to="130007211"/>
    <trip id="95" depart="0.38" from="-55055039" to="516818990"/>
    <trip id="96" depart="0.38" from="532890730" to="-676721808"/>
    <trip id="97" depart="0.39" from="63682613" to="246920616"/>
    <trip id="98" depart="0.39" from="777738608" to="-604236468#2"/>
    <trip id="99" depart="0.40" from="30800809" to="485955802#0"/>
    <trip id="100" depart="0.40" from="672697430#0" to="24269099"/>
    <trip id="102" depart="0.41" from="165691541" to="25025552"/>
    <trip id="103" depart="0.41" from="46696017" to="57401568#0"/>
    <trip id="104" depart="0.42" from="50219639#0" to="24690872#0"/>
    <trip id="105" depart="0.42" from="25702974#0" to="225111770"/>
    <trip id="106" depart="0.42" from="-123447622#2" to="24037759"/>
    <trip id="107" depart="0.43" from="-46696016" to="24731267#0"/>
    <trip id="108" depart="0.43" from="459379970#0" to="155220677#0"/>
    <trip id="109" depart="0.44" from="293068528" to="-201138752#3"/>
    <trip id="110" depart="0.44" from="-25452573" to="324877838"/>
    <trip id="111" depart="0.44" from="-291749682#1" to="-25452940#0"/>
    <trip id="112" depart="0.45" from="16608521#0" to="324877838"/>
    <trip id="113" depart="0.45" from="25452940#0" to="596980224"/>
    <trip id="114" depart="0.46" from="515808886" to="24262718#0"/>
    <trip id="115" depart="0.46" from="-173301973" to="35907770#0"/>
    <trip id="116" depart="0.46" from="32266102" to="24691772#0"/>
    <trip id="117" depart="0.47" from="727077020" to="56066467"/>
    <trip id="118" depart="0.47" from="35049505#0" to="23491486"/>
    <trip id="119" depart="0.48" from="15237969#0" to="24269068#1"/>
    <trip id="120" depart="0.48" from="-485954510" to="25452892"/>
    <trip id="121" depart="0.48" from="-183589364#0" to="126775448#0"/>
    <trip id="122" depart="0.49" from="373718394#0" to="152647351#0"/>
    <trip id="123" depart="0.49" from="127253516#0" to="24691798"/>
    <trip id="124" depart="0.50" from="-17044822" to="-896002411"/>
    <trip id="125" depart="0.50" from="35781569#0" to="366806245#1"/>
    <trip id="126" depart="0.50" from="24691798" to="50676970"/>
    <trip id="127" depart="0.51" from="-337178026#3" to="658312655"/>
    <trip id="128" depart="0.51" from="363499049#2" to="30853950#2"/>
    <trip id="129" depart="0.52" from="-57401575#1" to="165824603#0"/>
    <trip id="130" depart="0.52" from="24036225" to="625093159"/>
    <trip id="131" depart="0.52" from="341528499#0" to="1062348385"/>
    <trip id="132" depart="0.53" from="95842194#0" to="186724109"/>
    <trip id="133" depart="0.53" from="311151132#0" to="25070158"/>
    <trip id="134" depart="0.54" from="-329935740" to="-32844945#1"/>
    <trip id="135" depart="0.54" from="296896082#0" to="279369634"/>
    <trip id="136" depart="0.54" from="24690885#0" to="-25452906"/>
    <trip id="137" depart="0.55" from="296910358#0" to="312567850"/>
    <trip id="138" depart="0.55" from="372155087" to="24268398"/>
    <trip id="139" depart="0.56" from="165824603#0" to="32845684#1"/>
    <trip id="140" depart="0.56" from="35049504" to="50219639#3"/>
    <trip id="141" depart="0.56" from="262551653" to="293821499"/>
    <trip id="142" depart="0.57" from="332665324#0" to="-375025645#1"/>
    <trip id="143" depart="0.57" from="-443807264#1" to="25702978"/>
    <trip id="144" depart="0.58" from="233575190#0" to="842430797"/>
    <trip id="145" depart="0.58" from="24261402" to="24300975#1"/>
    <trip id="146" depart="0.58" from="24679371#0" to="25698836#1"/>
    <trip id="147" depart="0.59" from="-913855167#4" to="24690714#0"/>
    <trip id="149" depart="0.60" from="57401572" to="173111325"/>
    <trip id="150" depart="0.60" from="294499584" to="24269291"/>
    <trip id="151" depart="0.60" from="24261178#0" to="24203473#0"/>
    <trip id="152" depart="0.61" from="25427961#0" to="663003520"/>
    <trip id="153" depart="0.61" from="38811596" to="206502937"/>
    <trip id="154" depart="0.62" from="50676970" to="-35779024#0"/>
    <trip id="155" depart="0.62" from="324357707#0" to="725150083"/>
    <trip id="156" depart="0.62" from="116709834#0" to="63682643#2"/>
    <trip id="157" depart="0.63" from="127060032" to="311151132#0"/>
    <trip id="158" depart="0.63" from="57401574" to="-24037759"/>
    <trip id="159" depart="0.64" from="24691892#0" to="-283407356#1"/>
    <trip id="160" depart="0.64" from="305817718#1" to="-24740064#1"/>
    <trip id="161" depart="0.64" from="-363499047" to="485954509"/>
    <trip id="162" depart="0.65" from="241426121#0" to="32811390"/>
    <trip id="163" depart="0.65" from="-148348626#1" to="50219642#0"/>
    <trip id="164" depart="0.66" from="24261561" to="24261178#0"/>
    <trip id="165" depart="0.66" from="23786268#0" to="126765636#0"/>
    <trip id="166" depart="0.66" from="39622348" to="589523533"/>
    <trip id="168" depart="0.67" from="183589364#0" to="548875276#0"/>
    <trip id="169" depart="0.68" from="-185858321" to="290173990"/>
    <trip id="170" depart="0.68" from="-165691570" to="246920610"/>
    <trip id="171" depart="0.68" from="260760841#0" to="25452906"/>
    <trip id="172" depart="0.69" from="337178026#0" to="165824600"/>
    <trip id="173" depart="0.69" from="34572879#0" to="269078061"/>
    <trip id="174" depart="0.70" from="32266083" to="398265285"/>
    <trip id="175" depart="0.70" from="485488643" to="25696827#0"/>
    <trip id="176" depart="0.70" from="503811359" to="25696824"/>
    <trip id="177" depart="0.71" from="24726999" to="-130007212#1"/>
    <trip id="178" depart="0.71" from="728948934" to="17043951#0"/>
    <trip id="179" depart="0.72" from="22790341" to="258606387#0"/>
    <trip id="180" depart="0.72" from="156974366#0" to="131158702#0"/>
    <trip id="181" depart="0.72" from="287676608" to="663003520"/>
    <trip id="182" depart="0.73" from="24726999" to="-24690872#1"/>
    <trip id="183" depart="0.73" from="337178026#2" to="35775175"/>
    <trip id="184" depart="0.74" from="25452892" to="54724436#1"/>
    <trip id="185" depart="0.74" from="293821500#2" to="126765650"/>
    <trip id="186" depart="0.74" from="842430797" to="184088845#2"/>
    <trip id="187" depart="0.75" from="1084897571#1" to="23226585#0"/>
    <trip id="188" depart="0.75" from="-148348626#1" to="-875723370"/>
    <trip id="189" depart="0.76" from="86113051#0" to="24690800"/>
    <trip id="190" depart="0.76" from="50676960" to="373718394#1"/>
    <trip id="191" depart="0.76" from="219737809" to="341837485#0"/>
    <trip id="192" depart="0.77" from="-57401569#2" to="290173990"/>
    <trip id="193" depart="0.77" from="293201868" to="-574782505"/>
    <trip id="196" depart="0.78" from="913873416#0" to="165824600"/>
    <trip id="198" depart="0.79" from="-321593792" to="294829018"/>
    <trip id="200" depart="0.80" from="24269291" to="315045833"/>
    <trip id="201" depart="0.80" from="-165691574" to="24262417#0"/>
    <trip id="202" depart="0.81" from="299376586#0" to="333924969#0"/>
    <trip id="203" depart="0.81" from="182049119#0" to="-25440988#2"/>
    <trip id="204" depart="0.82" from="-663003514#1" to="-810564474#3"/>
    <trip id="205" depart="0.82" from="323246478" to="721014334"/>
    <trip id="206" depart="0.82" from="23786176" to="-485954509"/>
    <trip id="207" depart="0.83" from="127253503" to="293201867"/>
    <trip id="208" depart="0.83" from="34800660#2" to="32845684#1"/>
    <trip id="209" depart="0.84" from="25400412" to="234346887"/>
    <trip id="211" depart="0.84" from="95842199" to="-24740200#1"/>
    <trip id="212" depart="0.85" from="-375025646" to="835330905"/>
    <trip id="213" depart="0.85" from="-813153219" to="-283407356#1"/>
    <trip id="214" depart="0.86" from="-25696201" to="95842194#1"/>
    <trip id="215" depart="0.86" from="663003513" to="724560135"/>
    <trip id="216" depart="0.86" from="155220677#0" to="191056076"/>
    <trip id="217" depart="0.87" from="992226104" to="246920614"/>
    <trip id="218" depart="0.87" from="-25710423#4" to="761798781"/>
    <trip id="219" depart="0.88" from="372156740" to="37349555#2"/>
    <trip id="221" depart="0.88" from="448772800" to="475127088#0"/>
    <trip id="222" depart="0.89" from="86113051#0" to="27950560"/>
    <trip id="223" depart="0.89" from="95842194#1" to="720970054"/>
    <trip id="224" depart="0.90" from="-39622350" to="672656726"/>
    <trip id="225" depart="0.90" from="63682623#2" to="8107828"/>
    <trip id="226" depart="0.90" from="324357704" to="1083102058"/>
    <trip id="227" depart="0.91" from="35669455" to="184015425"/>
    <trip id="228" depart="0.91" from="1091525590" to="971656016#0"/>
    <trip id="229" depart="0.92" from="639488552#0" to="470010795"/>
    <trip id="230" depart="0.92" from="913855167#3" to="826316131#0"/>
    <trip id="231" depart="0.92" from="-383898016" to="663003514#0"/>
    <trip id="232" depart="0.93" from="315316080" to="312561894"/>
    <trip id="233" depart="0.93" from="63682643#2" to="625093158"/>
    <trip id="234" depart="0.94" from="-57401575#1" to="16608521#0"/>
    <trip id="235" depart="0.94" from="95842186" to="55055038"/>
    <trip id="236" depart="0.94" from="461742211" to="-363499035#4"/>
    <trip id="237" depart="0.95" from="-485954510" to="262551666"/>
    <trip id="238" depart="0.95" from="353288345" to="57401570#0"/>
    <trip id="239" depart="0.96" from="24255970#0" to="262071968#0"/>
    <trip id="240" depart="0.96" from="459379970#0" to="-375025645#4"/>
    <trip id="241" depart="0.96" from="-574782505" to="838564431#1"/>
    <trip id="242" depart="0.97" from="25702975#1" to="625093159"/>
    <trip id="243" depart="0.97" from="380414153" to="524756994#1"/>
    <trip id="244" depart="0.98" from="-37349558#0" to="138009044#0"/>
    <trip id="245" depart="0.98" from="600850364" to="235997654"/>
    <trip id="246" depart="0.98" from="24680099#0" to="663003513"/>
    <trip id="247" depart="0.99" from="-151721406#2" to="35775318"/>
    <trip id="248" depart="0.99" from="-896198994#2" to="24691892#0"/>
    <trip id="249" depart="1.00" from="127553883#0" to="-247981388#0"/>
    <trip id="250" depart="1.00" from="-855392303#1" to="35907770#0"/>
    <trip id="251" depart="1.00" from="373718394#1" to="24314355#0"/>
    <trip id="252" depart="1.01" from="663022306#0" to="375025644#0"/>
    <trip id="253" depart="1.01" from="175896551#0" to="123447622#1"/>
    <trip id="254" depart="1.02" from="-485689912" to="24262418#0"/>
    <trip id="255" depart="1.02" from="-63682623#2" to="24269064"/>
    <trip id="256" depart="1.02" from="-262071974" to="24689550"/>
    <trip id="257" depart="1.03" from="-855392303#0" to="-589523532"/>
    <trip id="258" depart="1.03" from="-211768789" to="173301973"/>
    <trip id="259" depart="1.04" from="-262551666" to="95842186"/>
    <trip id="260" depart="1.04" from="16609684" to="-971656019"/>
    <trip id="261" depart="1.04" from="307214695#1" to="277829991#3"/>
    <trip id="262" depart="1.05" from="35669462#0" to="27950560"/>
    <trip id="263" depart="1.05" from="425221273" to="24691852#0"/>
    <trip id="264" depart="1.06" from="-20831069#0" to="-663009166"/>
    <trip id="265" depart="1.06" from="458338069#0" to="191056076"/>
    <trip id="266" depart="1.06" from="-24269212" to="-913855167#3"/>
    <trip id="267" depart="1.07" from="57401581" to="23786221#0"/>
    <trip id="268" depart="1.07" from="25452499#1" to="277829991#0"/>
    <trip id="269" depart="1.08" from="24690761" to="-577189666"/>
    <trip id="270" depart="1.08" from="363499038#0" to="32800986#0"/>
    <trip id="271" depart="1.08" from="260760845" to="-183431633"/>
    <trip id="272" depart="1.09" from="148233396#0" to="721614868#0"/>
    <trip id="273" depart="1.09" from="663003520" to="-838564431#1"/>
    <trip id="274" depart="1.10" from="165691580#0" to="676986970"/>
    <trip id="275" depart="1.10" from="9810521" to="312567856#0"/>
    <trip id="276" depart="1.10" from="305968331#4" to="37349555#2"/>
    <trip id="277" depart="1.11" from="54724423#2" to="24261849"/>
    <trip id="278" depart="1.11" from="233575189#0" to="896198993"/>
    <trip id="279" depart="1.12" from="-173301972#0" to="701225103"/>
    <trip id="280" depart="1.12" from="816221525#0" to="-329935740"/>
    <trip id="281" depart="1.12" from="698356541" to="229905079"/>
    <trip id="282" depart="1.13" from="24269099" to="458338069#0"/>
    <trip id="283" depart="1.13" from="219151215" to="24721975#0"/>
    <trip id="284" depart="1.14" from="58722670" to="450667510"/>
    <trip id="285" depart="1.14" from="152392898" to="724560137#0"/>
    <trip id="286" depart="1.14" from="234715491" to="-315050843"/>
    <trip id="287" depart="1.15" from="156974365" to="54236653"/>
    <trip id="288" depart="1.15" from="24726999" to="-676666514#1"/>
    <trip id="289" depart="1.16" from="175896551#0" to="95842186"/>
    <trip id="290" depart="1.16" from="-1079478063" to="55363141"/>
    <trip id="291" depart="1.16" from="25707309" to="725931084"/>
    <trip id="292" depart="1.17" from="-24724991" to="-346294134"/>
    <trip id="293" depart="1.17" from="-676721808" to="141393250#1"/>
    <trip id="294" depart="1.18" from="183192595#3" to="296896088#1"/>
    <trip id="295" depart="1.18" from="35553136#1" to="24682846#0"/>
    <trip id="296" depart="1.18" from="59556901#0" to="262551713#0"/>
    <trip id="297" depart="1.19" from="54236641" to="24262556"/>
    <trip id="298" depart="1.19" from="200997455#2" to="-50219639#2"/>
    <trip id="299" depart="1.20" from="32789626" to="296910364#0"/>
    <trip id="300" depart="1.20" from="293068528" to="36064008"/>
    <trip id="301" depart="1.20" from="413953494" to="24690872#2"/>
    <trip id="302" depart="1.21" from="54727328" to="377538302"/>
    <trip id="303" depart="1.21" from="201007775" to="24262559"/>
    <trip id="304" depart="1.22" from="277829991#0" to="24269069"/>
    <trip id="305" depart="1.22" from="804331323#2" to="395458141"/>
    <trip id="306" depart="1.22" from="165691553" to="165691548"/>
    <trip id="307" depart="1.23" from="165250264" to="50676968#0"/>
    <trip id="308" depart="1.23" from="336105950" to="-262231248"/>
    <trip id="309" depart="1.24" from="126765636#0" to="35779739#3"/>
    <trip id="310" depart="1.24" from="25696810#2" to="-375025645#1"/>
    <trip id="311" depart="1.24" from="307214695#1" to="-913855167#2"/>
    <trip id="312" depart="1.25" from="-813153219" to="-39622361"/>
    <trip id="313" depart="1.25" from="24724274" to="288231838#0"/>
    <trip id="314" depart="1.26" from="1079478063" to="277829991#3"/>
    <trip id="315" depart="1.26" from="39622348" to="-156974362"/>
    <trip id="316" depart="1.26" from="35470887" to="380441934#0"/>
    <trip id="317" depart="1.27" from="331237097#1" to="663003520"/>
    <trip id="318" depart="1.27" from="-466141546#2" to="260760845"/>
    <trip id="319" depart="1.28" from="24269273" to="247205061#1"/>
    <trip id="320" depart="1.28" from="24682351#0" to="24269132"/>
    <trip id="321" depart="1.28" from="58640916" to="529152856"/>
    <trip id="322" depart="1.29" from="25696824" to="548862179"/>
    <trip id="323" depart="1.29" from="57403094#0" to="123447622#0"/>
    <trip id="324" depart="1.30" from="24262577" to="54724436#1"/>
    <trip id="325" depart="1.30" from="296916318" to="24724951"/>
    <trip id="326" depart="1.30" from="721614864" to="224131973#0"/>
    <trip id="327" depart="1.31" from="296896090#2" to="750928702"/>
    <trip id="328" depart="1.31" from="24721653#0" to="-855392303#0"/>
    <trip id="329" depart="1.32" from="-24262578" to="-323408287#1"/>
    <trip id="330" depart="1.32" from="750928701" to="-201138751#3"/>
    <trip id="331" depart="1.32" from="55418902#0" to="1085625386"/>
    <trip id="332" depart="1.33" from="-826316132" to="-288152137#0"/>
    <trip id="333" depart="1.33" from="24269145#0" to="-855392303#1"/>
    <trip id="334" depart="1.34" from="175896552" to="375025645#3"/>
    <trip id="335" depart="1.34" from="24419994" to="251455079"/>
    <trip id="336" depart="1.34" from="366806245#1" to="25452892"/>
    <trip id="337" depart="1.35" from="329935740" to="25710423#0"/>
    <trip id="338" depart="1.35" from="529152856" to="24261561"/>
    <trip id="339" depart="1.36" from="293397308#0" to="24682846#0"/>
    <trip id="340" depart="1.36" from="-127554392" to="262071968#0"/>
    <trip id="341" depart="1.36" from="724560136" to="23491495"/>
    <trip id="342" depart="1.37" from="876656463" to="600850364"/>
    <trip id="343" depart="1.37" from="274212149" to="337178026#4"/>
    <trip id="344" depart="1.38" from="329935740" to="336309842#2"/>
    <trip id="345" depart="1.38" from="-60201513" to="95842189"/>
    <trip id="346" depart="1.38" from="235997654" to="-125067639#1"/>
    <trip id="347" depart="1.39" from="-315316081#2" to="127253516#2"/>
    <trip id="348" depart="1.39" from="721614867" to="54110329#1"/>
    <trip id="349" depart="1.40" from="24261970" to="346285619"/>
    <trip id="350" depart="1.40" from="165824600" to="296814387#0"/>
    <trip id="351" depart="1.40" from="54236652" to="23786268#1"/>
    <trip id="352" depart="1.41" from="24262858" to="165824603#1"/>
    <trip id="353" depart="1.41" from="721614869" to="-15238236#3"/>
    <trip id="354" depart="1.42" from="-378376559#1" to="27437807"/>
    <trip id="355" depart="1.42" from="175896552" to="952945085"/>
    <trip id="356" depart="1.42" from="36064008" to="24690714#0"/>
    <trip id="357" depart="1.43" from="34572881" to="-375025644#0"/>
    <trip id="358" depart="1.43" from="-152392885#2" to="234715492#0"/>
    <trip id="359" depart="1.44" from="35907769" to="25428009"/>
    <trip id="360" depart="1.44" from="336553244" to="25696807#0"/>
    <trip id="361" depart="1.44" from="720993992#1" to="219737809"/>
    <trip id="362" depart="1.45" from="519455780" to="816221524"/>
    <trip id="363" depart="1.45" from="294499588#0" to="-291749682#0"/>
    <trip id="364" depart="1.46" from="524756994#1" to="-148347937#3"/>
    <trip id="365" depart="1.46" from="25452818" to="293201859"/>
    <trip id="366" depart="1.46" from="-988450023" to="32826190#1"/>
    <trip id="367" depart="1.47" from="24680180#0" to="-24690763#1"/>
    <trip id="368" depart="1.47" from="127170602" to="90712079"/>
    <trip id="369" depart="1.48" from="55055041" to="234346887"/>
    <trip id="370" depart="1.48" from="156974367" to="-165691552"/>
    <trip id="371" depart="1.48" from="-25707319" to="24534682"/>
    <trip id="372" depart="1.49" from="127553910" to="169361408"/>
    <trip id="373" depart="1.49" from="55418905#0" to="24268470"/>
    <trip id="374" depart="1.50" from="663003513" to="-315050843"/>
    <trip id="375" depart="1.50" from="550277925" to="24300975#1"/>
    <trip id="376" depart="1.50" from="-373882672" to="750632130#0"/>
    <trip id="377" depart="1.51" from="297138423" to="301322407#0"/>
    <trip id="378" depart="1.51" from="277829991#0" to="37349557"/>
    <trip id="379" depart="1.52" from="24269330" to="280665344#0"/>
    <trip id="380" depart="1.52" from="51138785#0" to="-27947852#0"/>
    <trip id="381" depart="1.52" from="293178622" to="24724408#1"/>
    <trip id="382" depart="1.53" from="315044359#0" to="20830852#0"/>
    <trip id="383" depart="1.53" from="-329935740" to="-581325727"/>
    <trip id="384" depart="1.54" from="-485954510" to="663003509"/>
    <trip id="385" depart="1.54" from="425221273" to="532890727"/>
    <trip id="386" depart="1.54" from="336309842#0" to="24690885#0"/>
    <trip id="388" depart="1.55" from="54357148#0" to="24302366#0"/>
    <trip id="389" depart="1.56" from="-15238299#3" to="54236653"/>
    <trip id="390" depart="1.56" from="24722074" to="184084230"/>
    <trip id="391" depart="1.56" from="-913855167#0" to="-156974363"/>
    <trip id="392" depart="1.57" from="20831069#1" to="470806363#0"/>
    <trip id="393" depart="1.57" from="24690885#0" to="448772801#0"/>
    <trip id="394" depart="1.58" from="55055051" to="305816975#0"/>
    <trip id="395" depart="1.58" from="290173990" to="141393250#1"/>
    <trip id="396" depart="1.58" from="127553883#0" to="59546333#0"/>
    <trip id="397" depart="1.59" from="913855168" to="32826190#2"/>
    <trip id="398" depart="1.59" from="720970055#0" to="63682613"/>
    <trip id="399" depart="1.60" from="20830852#1" to="485689912"/>
    <trip id="400" depart="1.60" from="54727334" to="279369635"/>
    <trip id="401" depart="1.60" from="23786266" to="1001157893"/>
    <trip id="402" depart="1.61" from="37392517" to="485955800"/>
    <trip id="403" depart="1.61" from="-25452818" to="-201138751#2"/>
    <trip id="404" depart="1.62" from="698356542#1" to="-305968331#3"/>
    <trip id="405" depart="1.62" from="8107828" to="-291749682#1"/>
    <trip id="406" depart="1.62" from="-24724691#2" to="468555086"/>
    <trip id="407" depart="1.63" from="-155220670#2" to="53864829#1"/>
    <trip id="408" depart="1.63" from="720970053" to="24261227"/>
    <trip id="409" depart="1.64" from="17097295" to="26734004#1"/>
    <trip id="410" depart="1.64" from="346285619" to="-37390247"/>
    <trip id="411" depart="1.64" from="293397311#0" to="78414962"/>
    <trip id="412" depart="1.65" from="34572878#0" to="225111772"/>
    <trip id="413" depart="1.65" from="-24691920" to="290173616"/>
    <trip id="414" depart="1.66" from="9810521" to="57401572"/>
    <trip id="415" depart="1.66" from="366806245#0" to="1085736096"/>
    <trip id="416" depart="1.66" from="57401569#0" to="375661274"/>
    <trip id="417" depart="1.67" from="720970053" to="46848863#0"/>
    <trip id="418" depart="1.67" from="-663022307" to="58641336"/>
    <trip id="419" depart="1.68" from="36064008" to="9797183"/>
    <trip id="420" depart="1.68" from="672656726" to="35049504"/>
    <trip id="421" depart="1.68" from="24689543#0" to="-27947852#0"/>
    <trip id="422" depart="1.69" from="835330907" to="86113051#3"/>
    <trip id="423" depart="1.69" from="24680099#1" to="304649694"/>
    <trip id="424" depart="1.70" from="55055046#5" to="24261561"/>
    <trip id="425" depart="1.70" from="-971656019" to="155220689"/>
    <trip id="426" depart="1.70" from="-151721406#1" to="262231248"/>
    <trip id="427" depart="1.71" from="-663009166" to="165824600"/>
    <trip id="428" depart="1.71" from="308464773#2" to="35779024#1"/>