<?xml version="1.0" encoding="UTF-8"?>

<!-- generated on 2022-10-16 20:16:58.350880 by randomTrips.py v1_14_1+0000-f654d7b963e
<configuration>
    <additional-files value="./complex_network/additionals.xml"/>
    <end value="10"/>
    <net-file value="./complex_network/osm.net.xml"/>
    <period value="0.004"/>
    <random value="True"/>
    <random-depart-offset value="5"/>
    <route-file value="./complex_network/complex_route.rou.xml"/>
    <validate value="True"/>
</configuration>
-->

<!-- generated on 2022-10-16 20:16:57 by Eclipse SUMO duarouter Version 1.14.1
<configuration xmlns:xsi="http://www.w3.org/2001/XMLSchema-instance" xsi:noNamespaceSchemaLocation="http://sumo.dlr.de/xsd/duarouterConfiguration.xsd">

    <input>
        <net-file value="./complex_network/osm.net.xml"/>
        <additional-files value="./complex_network/additionals.xml"/>
        <route-files value="trips.trips.xml"/>
    </input>

    <output>
        <output-file value="./complex_network/complex_route.rou.xml"/>
        <alternatives-output value="NUL"/>
    </output>

    <time>
        <begin value="0"/>
        <end value="10"/>
    </time>

    <report>
        <no-warnings value="true"/>
        <ignore-errors value="true"/>
        <no-step-log value="true"/>
    </report>

</configuration>
-->

<routes xmlns:xsi="http://www.w3.org/2001/XMLSchema-instance" xsi:noNamespaceSchemaLocation="http://sumo.dlr.de/xsd/routes_file.xsd">
    <vehicle id="0" depart="0.00">
        <route edges="24320176#0 325386557 341221360#0 4381354#0 38809636 804331323#1 804331323#2 233575190#0 27950561#0 296910358#0 721614870#0 262071959#0 296910357#0 296910361#0 262071965#0 95842186 384062346 50676970"/>
    </vehicle>
    <vehicle id="1" depart="0.00">
        <route edges="-336309842#0 156974366#0 -296903039#1 -25427630 -336553244 -225111768 -125067639#1 311151132#0 24302366#0 24302366#1 841734433#0 639488552#0 639488548#0 639488556 46848863#0 672662662#0 672659436 287891664#0 292642956 56066399 -383898016 24261297#0 672660653 4059955 321177993 233575189#0 27950560 233575190#0 38785977#0 262071998#0 461742213 114812516 24320225#0 284828474#0 20831647 262071968#0 524756997 24261107#0"/>
    </vehicle>
    <vehicle id="2" depart="0.01">
        <route edges="745484620 324357704 246920616 353070851 353070850 246920614 -896198994#2 165691582#0 165691548 165691550#0 165691549 165691552 165691561 165691553 165691577#0 165691574 165691566 46848020 295526927#0 295526927#1 13620464#1 728948934 36064008 23786137#0 28105435 25696827#0 23786265 23786255#2 23786255#3 54110329#0 23786260#0 25696810#1"/>
    </vehicle>
    <vehicle id="3" depart="0.01">
        <route edges="9810521 750632130#0 35740686 374890831 363499042#0 273652802 24269273 24268940 370571474 17097295 463821159#0 59556909 384916874 126765646 126765642 59556908#0 465237873 625093157#0 262231193#0 17097296 548875274#0 34800660#0 34800660#2 288231838#0 201007773#0 24721943#0 698356542#1 37349557 24721674 35049504 50676968#0"/>
    </vehicle>
    <vehicle id="4" depart="0.02">
        <route edges="293821500#0 24269132 380414153 24320176#0 325386557 341221360#0 4381354#0 38809636 804331323#1 804331323#2 233575190#0 27950561#0 296910358#0 721614870#0 262071959#0 296910357#0 296910361#0 262071965#0 95842186 384062346 50676970 8049714#0 34572881 24682124 178139027#0 -337178026#5 -337178026#4"/>
    </vehicle>
    <vehicle id="5" depart="0.02">
        <route edges="-24724991 25400412 676986970 24724691#0 -24724691#0 30800809 -46696018 -46696019 -724560134 46696013#0 293201868 287891663 292642956 56066399 -383898016 24261297#0 672660653 4059955 321177993 233575189#0 27950560 233575190#0 27950561#0 296910358#0 721614870#0 262071959#0 296910357#0 296910361#0 558840455#0 558840455#2 63682613 721614862#0 54724442"/>
    </vehicle>
    <vehicle id="6" depart="0.02">
        <route edges="46848909#0 54724411#0 37349559 423587826 423587825 721614862#0 54724442 24608113 326839048#0 165250264 296896086#0 524756994#1 262071971 524756996 528548776 296896082#0 296896084#0 262071968#0 524756997 24261107#0 296896094 34865705 38809638#0 54236652 24261970 374458656 55055042 24268999#0 57401572 260760845 55055041 57401570#0 296896089#0 67141216 60201515 57403751#0 868599613 294002087#0 56066466 299715756#1"/>
    </vehicle>
    <vehicle id="7" depart="0.03">
        <route edges="291749682#0 291749682#1 548875276#0 34865701#0 485955796 465252452#0 37349559 423587826 423587825 721614862#0 54724442 24608113 326839048#0 384062346 50676970 8049714#0 34572881 24682124 178139027#0 1062651068 32844945#1 896002411 373882676#0 -1083028532 -1062348381#1 24725054 24725066 -737062731"/>
    </vehicle>
    <vehicle id="8" depart="0.03">
        <route edges="-24690800 24690800 141393250#0 141393250#1 375344826 307214695#1 235997651#0 15238105#0 15238105#2 126765651#0 301322407#0 549803494#0 59546340 655314176#0 126765636#0 148233392#0 148233399#0 894360223#1 296896085#1 96029828#0 326839046 385715073#0 50676960 165250264 296896086#0 524756994#1 262071971 524756996 528548776 296896082#0 296896084#0 262071968#0 524756997 24261107#0 296896094 34865705 38809638#0 54236652 24261970 374458656 55055042 24268999#0 57401572 260760845 55055041 57401570#0 296896089#0 245449020 57403094#0 57401581 57401575#0 278985557 57401574 374851660 -279115888"/>
    </vehicle>
    <vehicle id="9" depart="0.04">
        <route edges="235997652#0 235997648#0 549820001#0 32266083 541319919 658312655 658312654 155220670#0 155220670#3 155220670#4 201138749 183589364#0 183589364#1 377538302 724560136 32845027#0 162135494 838564430 46696017 724560134 46696019 187243941 25452892 676986970 24724691#0 24724691#1 39622348 -24725054 -373882672"/>
    </vehicle>
    <vehicle id="10" depart="0.04">
        <route edges="225111773 315055073#0 315055073#1 25427801 301287937#0 78414960 127253506#0 24302366#1 841734433#0 639488552#0 639488548#0 639488556 46848863#0 672662662#0 672659436 287891664#0 292642956 56066399 -383898016 24261297#0 672660653 4059955 321177993 233575189#0 27950560 233575190#0 27950561#0 296910358#0 721614870#0 262071959#0 296910357#0 296910361#0 262071965#0 95842186 384062346 50676970 50676965#0 95839566#0 263318221 425221273 311385579 200997455#0 200997455#1 200997455#2 548862181#0 548862183 548862182#0 183192596#0 183192596#1 -58641336 -15238236#3 -15238236#1"/>
    </vehicle>
    <vehicle id="11" depart="0.04">
        <route edges="17044822 -17044822 468555081 468555068#0 -51138785#1 -468556722 -35775319 7989024#0 463821161 7988817 662997155 24268470 947038062 9810521 750632130#0 750632128 826619512#0 1103962368 1103962367 750632127 700236025#2 485429079#0 750632123#0 750632124#0 750632124#1 323998834#0 25696827#0 23786265 23786255#2 25696810#2 324495974 25696811 283407356#0 186724109"/>
    </vehicle>
    <vehicle id="13" depart="0.05">
        <route edges="304649694 838368979 485488642 128169718 24262418#0 -165691577#1 -384222061 -165691561 -165691552 -165691549 -165691550#1 -165691548 -56066465 259048744 -24319939 165691541 165691542 293201859 485689912 6064705 280989223 26468782 24255971 24301938 287676608 293201861 724560134 46696019 187243941 25452892 676986970 24724691#0 24724691#1 39622348 -24725054 -373882672 373882672"/>
    </vehicle>
    <vehicle id="14" depart="0.06">
        <route edges="-826316132 -279115888 -57401574 -278985557 -57401575#1 -817514105 -57403094#1 24262618 57403751#0 868599613 294002087#0 -165691552 -165691549 -165691550#1 -165691548 -56066465 259048744 -24319939 165691541 165691542 293201859 485689912 6064705 280989223 26468782 24255971 24301938 287676608 293201861 724560134 46696019 187243941"/>
    </vehicle>
    <vehicle id="15" depart="0.06">
        <route edges="363499038#0 363499038#1 54724438 577189669 54724436#0 54724436#1 22790341 363499042#0 273652802 24269273 24268940 370571474 17097295 463821159#0 59556909 384916874 126765646 126765642 59556908#0 465237873 625093157#0 262231193#0 17097296 548875274#0 34800660#0 34800660#2 288231838#0 201007773#0 201007773#4 52955389#0 34572878#0 126765639#0 59546341#0 727250790 126765648 24680099#0 24680099#1 58722665 549820001#0 32266083 541319919 -24682351#1 -24682846#2 24682846#0"/>
    </vehicle>
    <vehicle id="16" depart="0.06">
        <route edges="-130007212#1 -688637335 -262231248 262231248 466141549 130007212#0 -837153185 -271722077 -55055048#1 -262551713#1 -278985560#1 -38811596 -278985559 -278985558 -826316133 -817514105 -57403094#1 24262618 57403751#0 868599613 294002087#0 -165691552 -165691549 -165691550#1 -165691548 -56066465 259048744"/>
    </vehicle>
    <vehicle id="17" depart="0.07">
        <route edges="127253516#2 336105950 672697429 125067695 296903032#0 672697430#0 311151132#0 24302366#0 24302366#1 841734433#0 639488552#0 639488548#0 639488556 46848863#0 672662662#0 672659436 287891664#0 8107826 464432632 155220689 -485689912 -581325727 -165691542 -165691541 24319939 -896198994#2 165691582#0 165691548 165691550#0 165691549 165691552 56066466 299715756#1 816162388 296910364#0 24320527#0 55055051 57403094#0 57401581 57401575#0 278985557 57401574 374851660 826316132 279369632#0 227483374#0 280665344#0 -466141546#2 -644313249#1"/>
    </vehicle>
    <vehicle id="18" depart="0.07">
        <route edges="156341795#0 293201860#3 971656016#0 592850905#1 377538309#0 162135494 838564430 46696017 46696013#0 293201868 287891663 8107826 464432632 155220689 -485689912 -581325727 -165691542 24534682 25070156#0 25070158 353379638 353288345 24261561 1079478063 353288344 55055043#0 324357703#0 165633888 165633887 375661274 297817562#0 -60201513 -57401569#2 -273937673#1 -57401568#1 -55055034 -410377362 152647336#0 152647356 663003520 165824608 663003519 165824606 125067710 172780177 663003513 663003512 -443807264#1 663003510 663003509 262551653 127170603#0 127170603#1 -25710423#4 229905078#0 -653923092 25710420#0"/>
    </vehicle>
    <vehicle id="19" depart="0.08">
        <route edges="-375025645#2 -375025645#1 -375025645#0 -675659158#4 331237097#1 331237097#2 552222782#0 32266118#0 384916877 200133745#0 549819999#0 50219638 549820000#0 235997648#0 549820001#0 32266083 541319919 658312655 658312654 155220670#0 155220670#3 155220670#4 201138749 183589364#0 183589364#1 377538302 724560136 32845027#0 162135494 838564430 46696017 724560134 46696019 187243941 25452892 -25400412 25400412"/>
    </vehicle>
    <vehicle id="20" depart="0.08">
        <route edges="7988817 662997155 24268470 947038062 9810521 750632130#0 750632128 826619512#0 -837153185 -271722077 -55055048#1 -262551713#1 -278985560#1 -38811596 -278985559 -278985558 -826316133 -817514105 -57403094#1 24262618 57403751#0 868599613 294002087#0 -165691552 -165691549 -165691550#1 -165691548"/>
    </vehicle>
    <vehicle id="21" depart="0.08">
        <route edges="46848019 -165691567 -182049119#1 -384062354 -165691574 -165691577#1 -384222061 -165691561 56066466 152745514 24419994 207394645 23311000 319373300#0 165691550#0 165691549 165691552"/>
    </vehicle>
    <vehicle id="22" depart="0.09">
        <route edges="23491506#0 -23491506#2 262071965#0 95842186 384062346 50676970 50676965#0 95839566#0 263318221 425221273 311385579 200997455#0 200997455#1 200997455#2 548862181#0 548862183 548862182#0 183192596#0 183192596#1 696236568#0 460847281 -511807551#4"/>
    </vehicle>
    <vehicle id="23" depart="0.09">
        <route edges="-26469305 277829991#2 277829991#3 24255970#0 383263739#0 672659436 287891664#0 292642956 56066399 -383898016 24261297#0 672660653 4059955 321177993 233575189#0 27950560 233575190#0 27950561#0 296910358#0 721614870#0 262071959#0 296910357#0 296910361#0 262071965#0 95842186 384062346 50676970 50676965#0 95839566#0 263318221 425221273 311385579 200997455#0 200997455#1 200997455#2 548862181#0 548862183 548862182#0 15238299#1 58640915 58640916"/>
    </vehicle>
    <vehicle id="24" depart="0.10">
        <route edges="165691542 293201859 485689912 6064705 280989223 26468782 24255971 24301938 287676608 293201861 173522050 -838564431#1 -838564431#0 -971656019"/>
    </vehicle>
    <vehicle id="25" depart="0.10">
        <route edges="24262562#0 24262562#2 24262562#3 55055046#0 55055046#5 260760841#0 -273937673#1 -57401568#1 -55055034 -410377362 152647336#0 188083722 35775175 274212149 35775176 24268940 370571474 17097295 463821159#0 59556909 384916874 126765646 126765642 59556908#0 465237873 625093157#0 262231193#0 17097296 548875274#0 -152392885#2 -485954509 -498933394 -498933395 24691920 58634292 32800890"/>
    </vehicle>
    <vehicle id="26" depart="0.10">
        <route edges="-24269138 324357706 -324357702 -353288344 353288344 55055043#0 324357703#0 165633888 165633887 375661274 297817562#0 -60201513 -57401569#2 -273937673#1 -57401568#1 -55055034 -410377362 152647336#0 152647356 663003520 165824608 663003519 165824606 125067710 172780177 10222892 395458141 363499038#0 363499038#1 25702955"/>
    </vehicle>
    <vehicle id="27" depart="0.11">
        <route edges="24726999 -63682623#1 428894439#0 363499034#1 315044359#0 479712580#0 296910357#0 296910361#0 23491506#0 27947852#0 27947852#1 -27947852#1"/>
    </vehicle>
    <vehicle id="28" depart="0.11">
        <route edges="225111771 875723370 -25452447#1 724560135 25452619 971656016#0"/>
    </vehicle>
    <vehicle id="29" depart="0.12">
        <route edges="894360223#1 296896085#1 96029828#0 326839046 385715073#0 50676960 165250264 296896086#0 524756994#1 262071971 524756996 528548776 296896082#0 296896084#0 262071968#0 524756997 24261107#0 296896094 34865705 380176483 24261178#0 463013992 519455780 450667510 519455778 450667509 56066397 24255970#0 464432629 672660652#0 305817719#0 191056076 257686308#0 148347938#0 301287937#0 78414960 78414956 17275752 78414962 78414958 127253516#0 25432381"/>
    </vehicle>
    <vehicle id="30" depart="0.12">
        <route edges="35738505 577189669 25702974#0 25702974#1 25702976 398947969 363499049#0 363499049#2 532890728 532890727 127170602 35779739#3 663003511#0 -413953494 -138010130#1"/>
    </vehicle>
    <vehicle id="31" depart="0.12">
        <route edges="992226104 175896551#0 541319919 658312655 658312654 155220670#0 155220670#3 155220670#4 201138749 183589364#0 183589364#1 377538302 724560136 32845027#0 162135494 838564430 46696017 46696013#0 293201868 287891663 292642956 56066399 -383898016 24261297#0 672660653 4059955 321177993 233575189#0 940683859"/>
    </vehicle>
    <vehicle id="32" depart="0.13">
        <route edges="260760843 24262578 24262577 260545024 55055041 57401570#0 296896089#0 55055040 55055504 -320896963#1"/>
    </vehicle>
    <vehicle id="33" depart="0.13">
        <route edges="-165691577#1 -384222061 -165691561 56066466 299715756#1 816162388 296910364#0 24320527#0 55055051 57403094#0 57401581 24314546#0 278985558 278985559 38811596 278985560#0 262551713#0 55055048#0 271722077 271722079#0 271722075#0 262231188#0 273652802 24269271 55055038 -274212149 -35775175 152647351#0 152647356 663003520 165824608 663003519 165824606 125067710 172780177 663003513 663003512 -443807264#1 -413953494 -138010130#1 -663009166 138009044#0 323408287#0 138009041 211768788 -211768788 -138009041"/>
    </vehicle>
    <vehicle id="34" depart="0.14">
        <route edges="370571474 17097295 463821159#0 59556909 384916874 126765646 126765642 59556908#0 465237873 625093157#0 262231193#0 17097296 548875274#0 34800660#0 34800660#2 288231838#0 548862183 548862182#0 183192596#0 183192596#1 696236568#0 460847281 -511807551#4 -511807551#0 -913855167#4 -24740028#1 -24740028#0"/>
    </vehicle>
    <vehicle id="35" depart="0.14">
        <route edges="598944885#2 1084897571#1 1084897571#2 1084897571#3 235997651#0 15238105#0 15238105#2 126765651#0 301322407#0 549803494#0 59546340 655314176#0 126765636#0 34865699#0 148238504#0 183192595#0 183192595#3 467206303#0 619706215 1079580311 280989225#0 485955801 485955800 485955799#0 485955804#0 485955803 59556907#0 485955802#0 485955805#0 625093154 503811360 470806363#0 375345002#0 463821161 7988817 662997155 10221884 463821168 372156740 -53864726 -126986181 -37392514 -165713717 173111324 165824600 125067710 172780177 -662997154 152647344 526906287 138011440 37392509 398265286"/>
    </vehicle>
    <vehicle id="36" depart="0.14">
        <route edges="55055037 152647332#0 -410377362 152647336#0 188083722 35775175 274212149 35775176 24268940 370571474 17097295 463821159#0 59556909 384916874 126765646 126765642 32800986#0 721614864 54724411#0 37349559 423587826 423587825 721614862#0 54724442 24608113 326839048#0 384062346 50676970 8049714#0 34572881 24682124 178139027#0 -337178026#5 -337178026#4 -337178026#3 -337178026#2 -337178026#0"/>
    </vehicle>
    <vehicle id="37" depart="0.15">
        <route edges="548862185 183192596#0 183192596#1 696236568#0 460847281 -511807551#4 -511807551#0 151721406#0 -151721406#1"/>
    </vehicle>
    <vehicle id="38" depart="0.15">
        <route edges="24320225#0 284828474#0 20831647 262071968#0 524756997 24261107#0 296896094 34865705 38809638#0 54236652 24261970 374458656 55055042 24268999#0 57401572 260760845 55055041 57401570#0 296896089#0 245449020 57403094#0 57401581 57401575#0 278985557 57401574 374851660 826316132 279369632#0 227483374#0 280665344#0 -466141546#2 25696200 25696193#0"/>
    </vehicle>
    <vehicle id="39" depart="0.16">
        <route edges="24740064#0 312561894 24726374 312561895#0 384916872#0 894166783 35049499#1 95842194#0 95842194#1 235997636#0 148233392#0 148233399#0 894360223#1 296896085#1 96029828#0 326839046 385715073#0 50676960 165250264 296896086#0 524756994#1 262071971 524756996 528548776 296896082#0 296896084#0 262071968#0 524756997 24261107#0 296896094 34865705 38809638#0 54236652 24261970 374458656 55055042 24268999#0 57401572 260760845 55055041 57401570#0 296896089#0 67141216 60201515 57403751#0 868599613 294002087#0 56066467 78498991#0 241426120 296896091 425221271#0 296896090#2 184015425 184015424 57403756 179940536#0 179940536#1 57717637 127553910 125067679 -331367117"/>
    </vehicle>
    <vehicle id="40" depart="0.16">
        <route edges="24269280 379040192 32844006 550277925 379040190 24269305 -165691550#1 -165691548 -56066465 259048744 24262716 23226807#0 24311617#0 24268408 24311525#0 24261635#2 -252121041#1 252121041#0 148348626#0"/>
    </vehicle>
    <vehicle id="41" depart="0.16">
        <route edges="151721406#0 -151721406#1 511807551#0 511807551#1 328773701#0 548862185 548862179 227348517#0 619706215 1079580311 280989225#0 485955801 485955800 485955799#0 485955804#0 485955803 59556907#0 485955802#0 485955805#0 625093154 503811360 470806363#0 375345002#0 463821161 7988817 662997155 10221884 463821168 372156740 -53864726 -126986181 -37392514 -165713717 173111324 165824600 125067710 172780177 663003513 663003512 -443807264#1 -413953494 -138010130#1 -663009166 25707319 -138007022#3"/>
    </vehicle>
    <vehicle id="42" depart="0.17">
        <route edges="25707309 165824603#0 165824603#1 1071576910 185774461 372156741 10223090 35775175 274212149 35775176 24268940 370571474 17097295 463821159#0 59556909 384916874 126765646 126765642 32800986#0 721614864 54724411#0 37349559 423587826 423587825 721614862#0 54724442 24608113 326839048#0 384062346 50676970 8049714#0 34572881 24682124 178139027#0 1062651068 24680216#0 24680216#1 46696016 39622352#0 53864904#1"/>
    </vehicle>
    <vehicle id="43" depart="0.17">
        <route edges="384916876 32266102 54727328 84722619 913873412#1"/>
    </vehicle>
    <vehicle id="44" depart="0.18">
        <route edges="24740028#0 -375025645#2 -375025645#1 -375025645#0 -675659158#4 331237097#1 331237097#2 552222782#0 32266118#0 384916877 200133745#0 549819999#0 50219638 549820000#0 235997648#0 549820001#0 32266083 541319919 658312655 658312654 155220670#0 155220670#3 155220670#4 201138749 183589364#0 183589364#1 377538302 724560136 156341795#0 293201860#3 971656016#0 318452092 39622936 315050839"/>
    </vehicle>
    <vehicle id="45" depart="0.18">
        <route edges="-25452619 -724560135 -25452447#0 90712079 458338069#0 592850905#1 377538309#0 162135494 838564430 46696017 46696013#0 293201868 287891663 8107826 464432632 155220689 -485689912 -581325727 -165691542 24534682 25070156#0 25070158 353379638 353288345 24261561 1079478063 353288344 324357702 -374628992 246920610 345747426#0 345747426#1 54236651 324877838 325313604 290173616 24269030"/>
    </vehicle>
    <vehicle id="46" depart="0.18">
        <route edges="25427961#0 78414960 127253506#0 24302366#1 841734433#0 639488552#0 639488548#0 639488556 46848863#0 672662662#0 672659436 287891664#0 8107826 464432632 155220689 -485689912 -581325727 -165691542 -165691541 24319939 -896198994#2 165691582#0 165691548 165691550#0 165691549 165691552 165691561 165691553 165691577#0 165691574 165691566 46848020 295526927#0 295526927#1 13620464#1 728948934 36064008 23786137#0 23786137#1 110558599#2 110558597#0 26734651 297138423"/>
    </vehicle>
    <vehicle id="47" depart="0.19">
        <route edges="141393683 658294367#1 345236282#0 307214693 126765650 336011437#0 58722670 235997637 126765651#0 301322407#0 549803494#0 59546340 655314176#0 126765636#0 148233392#0 148233399#0 894360223#1 296896085#1 96029828#0 326839046 385715073#0 50676960 165250264 558840455#0"/>
    </vehicle>
    <vehicle id="48" depart="0.19">
        <route edges="235997652#0 235997648#0 549820001#0 32266083 541319919 658312655 658312654 155220670#0 155220670#3 155220670#4 201138749 183589364#0 183589364#1 377538302 724560136 32845027#0 162135494 838564430 46696017 46696013#0 293201868 287891663 8107826 464432632 155220689 -485689912 -581325727 -165691542 24534682 25070156#0 25070158 353379638 353288345 24261561 1079478063 353288344 324357702 -374628992 246920610 345747426#0 345747426#1 321593791 321593790"/>
    </vehicle>
    <vehicle id="49" depart="0.20">
        <route edges="485955804#0 485955803 59556907#0 485955802#0 485955805#0 625093154 503811360 470806363#0 375345002#0 463821161 7988817 662997155 24268470 947038062 9810521 750632130#0 750632128 826619512#0 -837153185 -271722077 -55055048#1 -262551713#1 -278985560#1 -38811596 -278985559 -278985558 -826316133 -817514105 -57403094#1 24262618 57403751#0 868599613 294002087#0 -165691552 -165691549 -165691550#1 -165691548 -56066465 413354090#0 60251466#0 24036226 24036225"/>
    </vehicle>
    <vehicle id="50" depart="0.20">
        <route edges="374851660 826316132 279369632#0 35553137#0 35553137#2 279369634 279369635 24262562#0 24262562#2 24262562#3 55055046#0 55055046#5 260760841#0 57401569#0 60201513 236483256#0 148348628 -165633888 24269095#0 290173990 293821500#0 293821500#2 24314198"/>
    </vehicle>
    <vehicle id="51" depart="0.20">
        <route edges="24203457#0 188750107 55055037 152647332#0 -410377362 152647336#0 188083722 35775175 274212149 35775176 24268940 370571474 17097295 463821159#0 59556909 384916874 126765646 126765642 32800986#0 721614864 54724411#0 37349559 423587826 423587825 721614862#0 54724442 24608113 326839048#0 384062346 50676970 8049714#0 34572881 24682124 178139027#0 1062651068 24680216#0 24680216#1"/>
    </vehicle>
    <vehicle id="52" depart="0.21">
        <route edges="225111773 315055073#0 315055073#1 25427801 301287937#0 78414960 127253506#0 24302366#1 841734433#0 639488552#0 639488548#0 639488556 46848863#0 672662662#0 672659436 287891664#0 292642956 56066399 -383898016 24261297#0 672660653 4059955 321177993 233575189#0 27950560 233575190#0 27950561#0 296910358#0 721614870#0 262071959#0 296910357#0 296910361#0 262071965#0 95842186 384062346 50676970 50676965#0 530858953 34572879#0 35049505#0 148233391#0 148233391#2 35049506 296910356 35049503#0 54267810 84596611#0 84722620#0"/>
    </vehicle>
    <vehicle id="53" depart="0.21">
        <route edges="152392917 485954508 485954509 -485954509 -498933394 -498933395 -485954510 -262071974 721614862#0 54724442 24608113 326839048#0 165250264 296896086#0 524756994#1 262071971 524756996 528548776 296896082#0 296896084#0 262071968#0 524756997 24261107#0 296896094 34865705 380176483 24261178#0 463013992 519455780 450667510 519455778 450667509 56066397 24255970#0 464432629 672660652#0 305817719#0 191056076 257686308#0 148347938#0 301287937#0 78414960 78414956 17275752 78414962 78414958 125067639#0 225111768 336553244 173301973 335950925 315050845"/>
    </vehicle>
    <vehicle id="54" depart="0.22">
        <route edges="24691821 992226104 175896551#0 307214694 380441934#0 307214693 126765650 336011437#0 58722670 235997637 126765651#0 301322407#0 549803494#0 59546340 655314176#0 126765636#0 34865699#0 148238504#0 183192595#0 183192595#3 467206303#0 619706215 1079580311 280989225#0 485955801 485955800 485955799#0 485955804#0 485955803 59556907#0 485955802#0 485955805#0 625093154 503811360 470806363#0 375345002#0 463821161 7988817 662997155 24268470 947038062 9810521 750632130#0 750632128 826619512#0 24268928 271722075#0 262231188#0"/>
    </vehicle>
    <vehicle id="55" depart="0.22">
        <route edges="55055035#2 55055046#5 260760841#0 57401569#0 60201513 236483256#0 148348628 -165633888 24269095#0 24320176#0 325386557 341221360#0 4381354#0 38809636 24261178#0 463013992 519455780 450667510 519455778 450667509 56066397 24255970#0 464432629 672660652#0 305817428#0 305817427 305817718#0 305817718#1 761798782 -341528504#0 -813153219 -8034435 341528499#0 293068528"/>
    </vehicle>
    <vehicle id="56" depart="0.22">
        <route edges="36000404#0 36000404#2 700236027 489660275#0 280665345 24268928 271722075#0 262231188#0 273652802 24269273 24268940 370571474 17097295 463821159#0 59556909 384916874 126765646 126765642 59556908#0 465237873 625093157#0 262231193#0 17097296 548875274#0 34800660#0 34800660#2 288231838#0 201007773#0 24721943#0 698356542#1 37349557 24721674 35049504 50676968#0"/>
    </vehicle>
    <vehicle id="57" depart="0.23">
        <route edges="55055042 24268999#0 57401572 260760845 55055041 57401570#0 296896089#0 245449020 57403094#0 57401581 24314546#0 278985558 278985559 38811596 278985560#0 262551713#0 55055048#0 271722077 271722078#0 -130007212#1 -688637335 -262231248 25702975#0 448772801#1 25702953#0 374890831"/>
    </vehicle>
    <vehicle id="58" depart="0.23">
        <route edges="307214695#1 235997651#0 15238105#0 15238105#2 126765651#0 301322407#0 549803494#0 59546340 655314176#0 126765636#0 34865699#0 148238504#0 183192595#0 183192595#3 467206303#0 619706215 1079580311 280989225#0 485955801 485955800 485955799#0 485955804#0 485955803 59556907#0 485955802#0 485955805#0 625093154 503811360 470806363#0 375345002#0 463821161 7988817 662997155 24268470 947038062 9810521 750632130#0 750632128 826619512#0 1103962368 1103962367 750632127 700236025#2 485429079#0 -466141546#2"/>
    </vehicle>
    <vehicle id="59" depart="0.24">
        <route edges="24680099#0 24680099#1 336011437#0 58722670 235997637 126765651#0 301322407#0 549803494#0 59546340 655314176#0 126765636#0 34865699#0 148238504#0 24721943#0 24721943#2 721014333 24721912"/>
    </vehicle>
    <vehicle id="60" depart="0.24">
        <route edges="23786265 23786255#2 23786255#3 23786247#0 23786247#1 127060032 165691559#0 777738608 331237096 -165691580#1 -165691570 -165691567 -182049119#1 -384062354 -165691574 -165691577#1 -384222061 -165691561 56066466 299715756#1 816162388 296910364#0 33517077 816221524 262231202 816221525#0 57402547 226736453 33840909 296910362 341221360#0 4381354#0 38809636 804331323#1 804331323#2 233575190#0 27950561#0 24724462#0"/>
    </vehicle>
    <vehicle id="61" depart="0.24">
        <route edges="35553137#0 35553137#2 279369634 279369635 55055048#0 271722077 271722079#0 271722075#0 262231188#0 273652802 24269273 24268940 370571474 17097295 463821159#0 59556909 384916874 126765646 126765642 59556908#0 465237873 625093157#0 262231193#0 17097296 548875274#0 34800660#0 34800660#2 288231838#0 201007773#0 24721943#0 698356542#1 37349557 37349558#0 37349558#1 95842194#0"/>
    </vehicle>
    <vehicle id="62" depart="0.25">
        <route edges="20831647 262071968#0 524756997 24261107#0 296896094 34865705 380176483 24261178#0 463013992 519455780 450667510 519455778 450667509 56066397 24255970#0 464432629 672660652#0 305817719#0 191056076 257686308#0 148347938#0 301287937#0 78414960 78414956 127253503 24302440 672656726 -262231155#1 -156974363 -156974362 -1079579239"/>
    </vehicle>
    <vehicle id="63" depart="0.25">
        <route edges="698356542#1 37349557 24721674 35049504 50676968#0 893663987 148233399#0 894360223#1 296896085#1 96029828#0 326839046 385715073#0 50676960 165250264 296896086#0 524756994#1 262071971 524756996 528548776 296896082#0 296896084#0 262071968#0 524756997 24261107#0 296896094 34865705 38809638#0 54236652 24261970 374458656 55055042 24268999#0 57401572 260760845 55055041 57401570#0 296896089#0 245449020 57403094#0 57401581 57401575#0 278985557 57401574"/>
    </vehicle>
    <vehicle id="64" depart="0.26">
        <route edges="-7988746 8034421#0 633874909#0 663022304#1 461742211 332665324#0 34865704 332932178#0 34865705 38809638#0 54236652 24261970 374458656 55055042 24268999#0 57401572 260760845 55055041 57401570#0 296896089#0 67141216 60201515 57403751#0 868599613 294002087#0 56066467 78498991#0 241426120 296896091 425221271#0 296896090#2"/>
    </vehicle>
    <vehicle id="65" depart="0.26">
        <route edges="-663003514#1 165824603#0 165824606 125067710 172780177 -662997154 152647344 526906287 138011440 234794903#0 22790392#0 37392514 126986181 53864726 37392515 947038062 9810521 750632130#0 750632128 826619512#0 -130007212#1 -688637335 -262231248 -262231247 -329935740"/>
    </vehicle>
    <vehicle id="66" depart="0.26">