<?xml version="1.0" encoding="UTF-8"?>

<!-- generated on 2022-09-19 19:38:03 by Eclipse SUMO netedit Version 1.14.1
-->

<routes xmlns:xsi="http://www.w3.org/2001/XMLSchema-instance" xsi:noNamespaceSchemaLocation="http://sumo.dlr.de/xsd/routes_file.xsd">
    <!-- Vehicles, persons and containers (sorted by depart) -->
    <trip id="t_0" depart="0.00" personNumber="1" from="E4" to="E5"/>
    <trip id="t_3" depart="0.00" color="blue" personNumber="2" from="-E5" to="-E4"/>
    <trip id="t_4" depart="0.00" departSpeed="10.00" color="magenta" from="-E6" to="E5"/>
    <trip id="t_5" depart="1.00" color="orange" personNumber="2" from="-E6" to="E7"/>
    <trip id="t_1" depart="2.00" color="white" personNumber="3" from="E4" to="E6"/>
    <trip id="t_2" depart="3.00" color="red" personNumber="3" from="E4" to="E7"/>
    <trip id="t_6" depart="7.00" color="green" personNumber="5" from="-E7" to="E6"/>
    <trip id="t_7" depart="45.00" color="0,0,128" from="E4" to="E5"/>
</routes>
