<?xml version="1.0" encoding="UTF-8"?>

<!-- generated on 2022-10-15 18:30:35.627982 by randomTrips.py v1_14_1+0000-f654d7b963e
<configuration>
    <additional-files value="./simple_network/addition.xml"/>
    <end value="10"/>
    <fringe-factor value="10.0"/>
    <net-file value="./simple_network/simple.net.xml"/>
    <period value="0.1"/>
    <random value="True"/>
    <random-depart-offset value="5"/>
    <route-file value="./simple_network/simple_route.rou.xml"/>
    <validate value="True"/>
</configuration>
-->

<!-- generated on 2022-10-15 18:30:35 by Eclipse SUMO duarouter Version 1.14.1
<configuration xmlns:xsi="http://www.w3.org/2001/XMLSchema-instance" xsi:noNamespaceSchemaLocation="http://sumo.dlr.de/xsd/duarouterConfiguration.xsd">

    <input>
        <net-file value="./simple_network/simple.net.xml"/>
        <additional-files value="./simple_network/addition.xml"/>
        <route-files value="trips.trips.xml"/>
    </input>

    <output>
        <output-file value="./simple_network/simple_route.rou.xml"/>
        <alternatives-output value="NUL"/>
    </output>

    <time>
        <begin value="0"/>
        <end value="10"/>
    </time>

    <report>
        <no-warnings value="true"/>
        <ignore-errors value="true"/>
        <no-step-log value="true"/>
    </report>

</configuration>
-->

<routes xmlns:xsi="http://www.w3.org/2001/XMLSchema-instance" xsi:noNamespaceSchemaLocation="http://sumo.dlr.de/xsd/routes_file.xsd">
    <vehicle id="1" depart="0.10">
        <route edges="-E20 -E19 -E18 -E17"/>
    </vehicle>
    <vehicle id="2" depart="0.20">
        <route edges="-E22 E28"/>
    </vehicle>
    <vehicle id="4" depart="0.40">
        <route edges="-E24 -E23 E19 E20"/>
    </vehicle>
    <vehicle id="5" depart="0.50">
        <route edges="-E24 -E23 E19 E20"/>
    </vehicle>
    <vehicle id="7" depart="0.70">
        <route edges="-E19 -E18 -E17"/>
    </vehicle>
    <vehicle id="13" depart="1.30">
        <route edges="-E20 -E19 -E18 -E17"/>
    </vehicle>
    <vehicle id="16" depart="1.60">
        <route edges="E17 E18 E21 E22"/>
    </vehicle>
    <vehicle id="20" depart="2.00">
        <route edges="-E22 -E21 -E18"/>
    </vehicle>
    <vehicle id="22" depart="2.20">
        <route edges="-E19 E23 E24"/>
    </vehicle>
    <vehicle id="23" depart="2.30">
        <route edges="-E22 E28 E24"/>
    </vehicle>
    <vehicle id="24" depart="2.40">
        <route edges="-E20 E27 E22"/>
    </vehicle>
    <vehicle id="25" depart="2.50">
        <route edges="-E24 -E23"/>
    </vehicle>
    <vehicle id="26" depart="2.60">
        <route edges="E28"/>
    </vehicle>
    <vehicle id="27" depart="2.70">
        <route edges="E25 E20"/>
    </vehicle>
    <vehicle id="28" depart="2.80">
        <route edges="-E24 E26 -E17"/>
    </vehicle>
    <vehicle id="29" depart="2.90">
        <route edges="E17 E25 E20"/>
    </vehicle>
    <vehicle id="30" depart="3.00">
        <route edges="E17 E18 E23 E24"/>
    </vehicle>
    <vehicle id="31" depart="3.10">
        <route edges="-E22 -E21 E19 E20"/>
    </vehicle>
    <vehicle id="34" depart="3.40">
        <route edges="-E24 E26 -E17"/>
    </vehicle>
    <vehicle id="35" depart="3.50">
        <route edges="-E20 -E19 -E18 -E17"/>
    </vehicle>
    <vehicle id="36" depart="3.60">
        <route edges="-E24 -E23 E21 E22"/>
    </vehicle>
    <vehicle id="41" depart="4.10">
        <route edges="-E20 E27 E22"/>
    </vehicle>
    <vehicle id="42" depart="4.20">
        <route edges="E17 E18 E23 E24"/>
    </vehicle>
    <vehicle id="49" depart="4.90">
        <route edges="E17 E18 E21 E22"/>
    </vehicle>
    <vehicle id="50" depart="5.00">
        <route edges="E17 E18 E21 E22"/>
    </vehicle>
    <vehicle id="51" depart="5.10">
        <route edges="-E20 E27 E22"/>
    </vehicle>
    <vehicle id="52" depart="5.20">
        <route edges="-E24 -E23 E21 E22"/>
    </vehicle>
    <vehicle id="53" depart="5.30">
        <route edges="-E24 E26 -E17"/>
    </vehicle>
    <vehicle id="55" depart="5.50">
        <route edges="E17 E18 E21 E22"/>
    </vehicle>
    <vehicle id="56" depart="5.60">
        <route edges="-E19 -E18 -E17"/>
    </vehicle>
    <vehicle id="58" depart="5.80">
        <route edges="-E22 -E21 -E18"/>
    </vehicle>
    <vehicle id="60" depart="6.00">
        <route edges="-E24 -E23 E19 E20"/>
    </vehicle>
    <vehicle id="61" depart="6.10">
        <route edges="-E22 E28"/>
    </vehicle>
    <vehicle id="63" depart="6.30">
        <route edges="-E24 E26 -E17"/>
    </vehicle>
    <vehicle id="65" depart="6.50">
        <route edges="-E20 E27 E22"/>
    </vehicle>
    <vehicle id="69" depart="6.90">
        <route edges="-E24 -E23 E19 E20"/>
    </vehicle>
    <vehicle id="70" depart="7.00">
        <route edges="-E18 -E17"/>
    </vehicle>
    <vehicle id="72" depart="7.20">
        <route edges="-E22 -E21 E19 E20"/>
    </vehicle>
    <vehicle id="73" depart="7.30">
        <route edges="-E24 -E23 E21 E22"/>
    </vehicle>
    <vehicle id="78" depart="7.80">
        <route edges="E17 E18 E21 E22"/>
    </vehicle>
    <vehicle id="79" depart="7.90">
        <route edges="E18 E23 E24"/>
    </vehicle>
    <vehicle id="80" depart="8.00">
        <route edges="E23 E24"/>
    </vehicle>
    <vehicle id="82" depart="8.20">
        <route edges="-E19 E23"/>
    </vehicle>
    <vehicle id="84" depart="8.40">
        <route edges="-E20 -E19 E23 E24"/>
    </vehicle>
    <vehicle id="85" depart="8.50">
        <route edges="E17 E18 E21 E22"/>
    </vehicle>
    <vehicle id="87" depart="8.70">
        <route edges="-E20 E27 E22"/>
    </vehicle>
    <vehicle id="88" depart="8.80">
        <route edges="-E24 -E23 E21 E22"/>
    </vehicle>
    <vehicle id="89" depart="8.90">
        <route edges="-E20 -E19"/>
    </vehicle>
    <vehicle id="91" depart="9.10">
        <route edges="E17 E25 E20"/>
    </vehicle>
    <vehicle id="92" depart="9.20">
        <route edges="E17 E25 E20"/>
    </vehicle>
    <vehicle id="93" depart="9.30">
        <route edges="-E22 -E21 E19"/>
    </vehicle>
    <vehicle id="95" depart="9.50">
        <route edges="-E24 -E23 E19 E20"/>
    </vehicle>
    <vehicle id="96" depart="9.60">
        <route edges="-E24 -E23 E19 E20"/>
    </vehicle>
    <vehicle id="97" depart="9.70">
        <route edges="-E22 -E21 E19 E20"/>
    </vehicle>
    <vehicle id="98" depart="9.80">
        <route edges="-E24 -E23 E21 E22"/>
    </vehicle>
    <vehicle id="99" depart="9.90">
        <route edges="-E20 E27 E22"/>
    </vehicle>
</routes>
